forcefield_3904
     RDKit          3D

 49 52  0  0  0  0  0  0  0  0999 V2000
    7.1950   23.7840    6.1780 C   0  0  0  0  0  0  0  0  0  0  0  0
    5.7810   23.6440    6.1320 O   0  0  0  0  0  0  0  0  0  0  0  0
    5.0380   24.7500    6.4550 C   0  0  0  0  0  0  0  0  0  0  0  0
    4.8270   25.8570    5.6380 C   0  0  0  0  0  0  0  0  0  0  0  0
    4.0460   26.9150    6.0970 C   0  0  0  0  0  0  0  0  0  0  0  0
    3.4760   26.8670    7.3710 C   0  0  0  0  0  0  0  0  0  0  0  0
    3.6720   25.7630    8.2160 C   0  0  0  0  0  0  0  0  0  0  0  0
    3.0720   25.7780    9.4800 N   0  0  0  0  0  0  0  0  0  0  0  0
    1.8090   25.4470    9.9650 C   0  0  0  0  0  0  0  0  0  0  0  0
    0.8080   26.1730    9.4160 N   0  0  0  0  0  0  0  0  0  0  0  0
   -0.4770   25.9480    9.8040 C   0  0  0  0  0  0  0  0  0  0  0  0
   -1.5110   26.6810    9.2540 O   0  0  0  0  0  0  0  0  0  0  0  0
   -1.0950   27.9270    8.6960 C   0  0  0  0  0  0  0  0  0  0  0  0
   -2.1890   28.9860    8.9110 C   0  0  0  0  0  0  0  0  0  0  0  0
   -1.6300   30.4110    8.7600 C   0  0  0  0  0  0  0  0  0  0  0  0
   -2.7130   31.4650    8.9780 C   0  0  0  0  0  0  0  0  0  0  0  0
   -3.4040   31.2910   10.3270 C   0  0  0  0  0  0  0  0  0  0  0  0
   -3.9520   29.8780   10.4990 C   0  0  0  0  0  0  0  0  0  0  0  0
   -2.8690   28.8240   10.2810 C   0  0  0  0  0  0  0  0  0  0  0  0
   -0.7400   24.9710   10.7610 C   0  0  0  0  0  0  0  0  0  0  0  0
   -1.8850   24.4940   11.3660 N   0  0  0  0  0  0  0  0  0  0  0  0
   -1.4690   23.5570   12.1930 C   0  0  0  0  0  0  0  0  0  0  0  0
   -0.1090   23.4080   12.1480 N   0  0  0  0  0  0  0  0  0  0  0  0
    0.3700   24.3040   11.2380 C   0  0  0  0  0  0  0  0  0  0  0  0
    1.6480   24.4860   10.8910 N   0  0  0  0  0  0  0  0  0  0  0  0
    4.4600   24.7130    7.7330 C   0  0  0  0  0  0  0  0  0  0  0  0
    7.5263   23.8168    7.2264 H   0  0  0  0  0  0  0  0  0  0  0  0
    7.6649   22.9280    5.6716 H   0  0  0  0  0  0  0  0  0  0  0  0
    7.4879   24.7155    5.6716 H   0  0  0  0  0  0  0  0  0  0  0  0
    5.2751   25.8961    4.6342 H   0  0  0  0  0  0  0  0  0  0  0  0
    3.8776   27.7913    5.4538 H   0  0  0  0  0  0  0  0  0  0  0  0
    2.8616   27.7104    7.7192 H   0  0  0  0  0  0  0  0  0  0  0  0
    3.6420   26.0930   10.2520 H   0  0  0  0  0  0  0  0  0  0  0  0
   -0.1673   28.2555    9.1874 H   0  0  0  0  0  0  0  0  0  0  0  0
   -0.9189   27.8009    7.6175 H   0  0  0  0  0  0  0  0  0  0  0  0
   -2.9466   28.8274    8.1294 H   0  0  0  0  0  0  0  0  0  0  0  0
   -0.8310   30.5615    9.5009 H   0  0  0  0  0  0  0  0  0  0  0  0
   -1.2424   30.5222    7.7366 H   0  0  0  0  0  0  0  0  0  0  0  0
   -2.2524   32.4632    8.9392 H   0  0  0  0  0  0  0  0  0  0  0  0
   -3.4689   31.3496    8.1873 H   0  0  0  0  0  0  0  0  0  0  0  0
   -2.6781   31.4924   11.1285 H   0  0  0  0  0  0  0  0  0  0  0  0
   -4.2475   31.9954   10.3749 H   0  0  0  0  0  0  0  0  0  0  0  0
   -4.3529   29.7723   11.5179 H   0  0  0  0  0  0  0  0  0  0  0  0
   -4.7404   29.7213    9.7481 H   0  0  0  0  0  0  0  0  0  0  0  0
   -2.1096   28.9239   11.0705 H   0  0  0  0  0  0  0  0  0  0  0  0
   -3.3427   27.8318   10.3148 H   0  0  0  0  0  0  0  0  0  0  0  0
   -2.1334   22.9663   12.8408 H   0  0  0  0  0  0  0  0  0  0  0  0
    0.4510   22.7600   12.6820 H   0  0  0  0  0  0  0  0  0  0  0  0
    4.6312   23.8345    8.3724 H   0  0  0  0  0  0  0  0  0  0  0  0
  1  2  1  0
  2  3  1  0
  3  4  2  0
  4  5  1  0
  5  6  2  0
  6  7  1  0
  7  8  1  0
  8  9  1  0
  9 10  2  0
 10 11  1  0
 11 12  1  0
 12 13  1  0
 13 14  1  0
 14 15  1  0
 15 16  1  0
 16 17  1  0
 17 18  1  0
 18 19  1  0
 11 20  2  0
 20 21  1  0
 21 22  2  0
 22 23  1  0
 23 24  1  0
 24 25  2  0
  7 26  2  0
 26  3  1  0
 25  9  1  0
 19 14  1  0
 24 20  1  0
  1 27  1  0
  1 28  1  0
  1 29  1  0
  4 30  1  0
  5 31  1  0
  6 32  1  0
  8 33  1  0
 13 34  1  0
 13 35  1  0
 14 36  1  0
 15 37  1  0
 15 38  1  0
 16 39  1  0
 16 40  1  0
 17 41  1  0
 17 42  1  0
 18 43  1  0
 18 44  1  0
 19 45  1  0
 19 46  1  0
 22 47  1  0
 23 48  1  0
 26 49  1  0
M  END
>  <ligandCode>  (1) 
forcefield_3904

>  <ligandName>  (1) 
klr_22

$$$$
